ID HEXA8
SOL 1
CEND                                                                                                                                
TITLE = THREE DIMENSIONAL MODEL OF A 16"x16"x160" BEAM USING HEXA 8 ELEMENTS. MESH IS  2x2x2, AR = 1
SUBTI = 2x2x2 FULL INTEGRATION: PSOLID  100     20              2               FULL
ECHO  = UNSORT
SET 11= 410101 THRU 410505
SET 41= 10101 THRU 10202
DISP  = 11
STRE  = 41
STRA  = 41
SPC   = 101
SUBCASE 11
  LABE = GRAVITY LOAD IN +X
  LOAD = 11
SUBCASE 12
  LABE = GRAVITY LOAD IN +Z
  LOAD = 12
SUBCASE 21
  LABE = 5 DEG BULK TEMP
  TEMP = 21
SUBCASE 22
  LABE = 1 DEG GRADIENT THRU X
  TEMP = 22
SUBCASE 31
  LABE = GRAVITY LOAD IN +X
  LOAD = 11
BEGIN BULK
$                                                                                                                                   
GRDSET                                                     456                                                                      
$                                                                                                                                   
PSOLID  100     20              2               REDUCED                                                                             
$                                                                                                                                   
MAT1    20      3.84+5          0.25    .1      12.5-4  0.                                                                          
$                                                                                                                                   
PARAM   SOLLIB   LAPACK
PARAM   SPARSTOR NONSYM                                                                                                             
PARAM   SORT_MAX 20                                                                                                                 
PARAM   GRDPNT   10202                                                                                                              
PARAM   POST     -1                                                                                                                 
$
DEBUG   192     2                                                       GPFO summary
DEBUG   200     1                                                       ANS
$                                                                                                                                   
GRAV    11                1.    1.0     0.0      0.0                                                                                
GRAV    12              300.    0.0     0.0      1.0                                                                                
$                                                                                                                                   
TEMPD   21      5.0                                                                                                                 
$                                                                                                                                   
SPC1    101     1        10103   10503                                                                                              
SPC1    101     2        10303                                                                                                      
SPC1    101     3        10101   THRU    10505                                                                                      
$                                                                                                                                   
$
CHEXA      10101     100   10101   10103   10303   10301   30101   30103+E     1
+E     1   30303   30301
CHEXA      20101     100   30101   30103   30303   30301   50101   50103+E     2
+E     2   50303   50301
CHEXA      30101     100   50101   50103   50303   50301   70101   70103+E     3
+E     3   70303   70301
CHEXA      40101     100   70101   70103   70303   70301   90101   90103+E     4
+E     4   90303   90301
CHEXA      50101     100   90101   90103   90303   90301  110101  110103+E     5
+E     5  110303  110301
CHEXA      60101     100  110101  110103  110303  110301  130101  130103+E     6
+E     6  130303  130301
CHEXA      70101     100  130101  130103  130303  130301  150101  150103+E     7
+E     7  150303  150301
CHEXA      80101     100  150101  150103  150303  150301  170101  170103+E     8
+E     8  170303  170301
CHEXA      90101     100  170101  170103  170303  170301  190101  190103+E     9
+E     9  190303  190301
CHEXA     100101     100  190101  190103  190303  190301  210101  210103+E    10
+E    10  210303  210301
CHEXA     110101     100  210101  210103  210303  210301  230101  230103+E    11
+E    11  230303  230301
CHEXA     120101     100  230101  230103  230303  230301  250101  250103+E    12
+E    12  250303  250301
CHEXA     130101     100  250101  250103  250303  250301  270101  270103+E    13
+E    13  270303  270301
CHEXA     140101     100  270101  270103  270303  270301  290101  290103+E    14
+E    14  290303  290301
CHEXA     150101     100  290101  290103  290303  290301  310101  310103+E    15
+E    15  310303  310301
CHEXA     160101     100  310101  310103  310303  310301  330101  330103+E    16
+E    16  330303  330301
CHEXA     170101     100  330101  330103  330303  330301  350101  350103+E    17
+E    17  350303  350301
CHEXA     180101     100  350101  350103  350303  350301  370101  370103+E    18
+E    18  370303  370301
CHEXA     190101     100  370101  370103  370303  370301  390101  390103+E    19
+E    19  390303  390301
CHEXA     200101     100  390101  390103  390303  390301  410101  410103+E    20
+E    20  410303  410301
$
CHEXA      10102     100   10103   10105   10305   10303   30103   30105+E    21
+E    21   30305   30303
CHEXA      20102     100   30103   30105   30305   30303   50103   50105+E    22
+E    22   50305   50303
CHEXA      30102     100   50103   50105   50305   50303   70103   70105+E    23
+E    23   70305   70303
CHEXA      40102     100   70103   70105   70305   70303   90103   90105+E    24
+E    24   90305   90303
CHEXA      50102     100   90103   90105   90305   90303  110103  110105+E    25
+E    25  110305  110303
CHEXA      60102     100  110103  110105  110305  110303  130103  130105+E    26
+E    26  130305  130303
CHEXA      70102     100  130103  130105  130305  130303  150103  150105+E    27
+E    27  150305  150303
CHEXA      80102     100  150103  150105  150305  150303  170103  170105+E    28
+E    28  170305  170303
CHEXA      90102     100  170103  170105  170305  170303  190103  190105+E    29
+E    29  190305  190303
CHEXA     100102     100  190103  190105  190305  190303  210103  210105+E    30
+E    30  210305  210303
CHEXA     110102     100  210103  210105  210305  210303  230103  230105+E    31
+E    31  230305  230303
CHEXA     120102     100  230103  230105  230305  230303  250103  250105+E    32
+E    32  250305  250303
CHEXA     130102     100  250103  250105  250305  250303  270103  270105+E    33
+E    33  270305  270303
CHEXA     140102     100  270103  270105  270305  270303  290103  290105+E    34
+E    34  290305  290303
CHEXA     150102     100  290103  290105  290305  290303  310103  310105+E    35
+E    35  310305  310303
CHEXA     160102     100  310103  310105  310305  310303  330103  330105+E    36
+E    36  330305  330303
CHEXA     170102     100  330103  330105  330305  330303  350103  350105+E    37
+E    37  350305  350303
CHEXA     180102     100  350103  350105  350305  350303  370103  370105+E    38
+E    38  370305  370303
CHEXA     190102     100  370103  370105  370305  370303  390103  390105+E    39
+E    39  390305  390303
CHEXA     200102     100  390103  390105  390305  390303  410103  410105+E    40
+E    40  410305  410303
$
CHEXA      10201     100   10301   10303   10503   10501   30301   30303+E    41
+E    41   30503   30501
CHEXA      20201     100   30301   30303   30503   30501   50301   50303+E    42
+E    42   50503   50501
CHEXA      30201     100   50301   50303   50503   50501   70301   70303+E    43
+E    43   70503   70501
CHEXA      40201     100   70301   70303   70503   70501   90301   90303+E    44
+E    44   90503   90501
CHEXA      50201     100   90301   90303   90503   90501  110301  110303+E    45
+E    45  110503  110501
CHEXA      60201     100  110301  110303  110503  110501  130301  130303+E    46
+E    46  130503  130501
CHEXA      70201     100  130301  130303  130503  130501  150301  150303+E    47
+E    47  150503  150501
CHEXA      80201     100  150301  150303  150503  150501  170301  170303+E    48
+E    48  170503  170501
CHEXA      90201     100  170301  170303  170503  170501  190301  190303+E    49
+E    49  190503  190501
CHEXA     100201     100  190301  190303  190503  190501  210301  210303+E    50
+E    50  210503  210501
CHEXA     110201     100  210301  210303  210503  210501  230301  230303+E    51
+E    51  230503  230501
CHEXA     120201     100  230301  230303  230503  230501  250301  250303+E    52
+E    52  250503  250501
CHEXA     130201     100  250301  250303  250503  250501  270301  270303+E    53
+E    53  270503  270501
CHEXA     140201     100  270301  270303  270503  270501  290301  290303+E    54
+E    54  290503  290501
CHEXA     150201     100  290301  290303  290503  290501  310301  310303+E    55
+E    55  310503  310501
CHEXA     160201     100  310301  310303  310503  310501  330301  330303+E    56
+E    56  330503  330501
CHEXA     170201     100  330301  330303  330503  330501  350301  350303+E    57
+E    57  350503  350501
CHEXA     180201     100  350301  350303  350503  350501  370301  370303+E    58
+E    58  370503  370501
CHEXA     190201     100  370301  370303  370503  370501  390301  390303+E    59
+E    59  390503  390501
CHEXA     200201     100  390301  390303  390503  390501  410301  410303+E    60
+E    60  410503  410501
$
CHEXA      10202     100   10303   10305   10505   10503   30303   30305+E    61
+E    61   30505   30503
CHEXA      20202     100   30303   30305   30505   30503   50303   50305+E    62
+E    62   50505   50503
CHEXA      30202     100   50303   50305   50505   50503   70303   70305+E    63
+E    63   70505   70503
CHEXA      40202     100   70303   70305   70505   70503   90303   90305+E    64
+E    64   90505   90503
CHEXA      50202     100   90303   90305   90505   90503  110303  110305+E    65
+E    65  110505  110503
CHEXA      60202     100  110303  110305  110505  110503  130303  130305+E    66
+E    66  130505  130503
CHEXA      70202     100  130303  130305  130505  130503  150303  150305+E    67
+E    67  150505  150503
CHEXA      80202     100  150303  150305  150505  150503  170303  170305+E    68
+E    68  170505  170503
CHEXA      90202     100  170303  170305  170505  170503  190303  190305+E    69
+E    69  190505  190503
CHEXA     100202     100  190303  190305  190505  190503  210303  210305+E    70
+E    70  210505  210503
CHEXA     110202     100  210303  210305  210505  210503  230303  230305+E    71
+E    71  230505  230503
CHEXA     120202     100  230303  230305  230505  230503  250303  250305+E    72
+E    72  250505  250503
CHEXA     130202     100  250303  250305  250505  250503  270303  270305+E    73
+E    73  270505  270503
CHEXA     140202     100  270303  270305  270505  270503  290303  290305+E    74
+E    74  290505  290503
CHEXA     150202     100  290303  290305  290505  290503  310303  310305+E    75
+E    75  310505  310503
CHEXA     160202     100  310303  310305  310505  310503  330303  330305+E    76
+E    76  330505  330503
CHEXA     170202     100  330303  330305  330505  330503  350303  350305+E    77
+E    77  350505  350503
CHEXA     180202     100  350303  350305  350505  350503  370303  370305+E    78
+E    78  370505  370503
CHEXA     190202     100  370303  370305  370505  370503  390303  390305+E    79
+E    79  390505  390503
CHEXA     200202     100  390303  390305  390505  390503  410303  410305+E    80
+E    80  410505  410503
$
$ Grids at basic z mesh (not ones that are mid side nodes in z direction)
GRID       10101       0   0.000   0.000   0.000       0        
GRID       10103       0   8.000   0.000   0.000       0        
GRID       10105       0  16.000   0.000   0.000       0        
GRID       10301       0   0.000   8.000   0.000       0        
GRID       10303       0   8.000   8.000   0.000       0        
GRID       10305       0  16.000   8.000   0.000       0        
GRID       10501       0   0.000  16.000   0.000       0        
GRID       10503       0   8.000  16.000   0.000       0        
GRID       10505       0  16.000  16.000   0.000       0        
$
GRID       30101       0   0.000   0.000   8.000       0        
$
GRID       30103       0   8.000   0.000   8.000       0        
GRID       30105       0  16.000   0.000   8.000       0        
GRID       30301       0   0.000   8.000   8.000       0        
GRID       30303       0   8.000   8.000   8.000       0        
GRID       30305       0  16.000   8.000   8.000       0        
GRID       30501       0   0.000  16.000   8.000       0        
GRID       30503       0   8.000  16.000   8.000       0        
GRID       30505       0  16.000  16.000   8.000       0        
$
GRID       50101       0   0.000   0.000  16.000       0        
$
GRID       50103       0   8.000   0.000  16.000       0        
GRID       50105       0  16.000   0.000  16.000       0        
GRID       50301       0   0.000   8.000  16.000       0        
GRID       50303       0   8.000   8.000  16.000       0        
GRID       50305       0  16.000   8.000  16.000       0        
GRID       50501       0   0.000  16.000  16.000       0        
GRID       50503       0   8.000  16.000  16.000       0        
GRID       50505       0  16.000  16.000  16.000       0        
$
GRID       70101       0   0.000   0.000  24.000       0        
$
GRID       70103       0   8.000   0.000  24.000       0        
GRID       70105       0  16.000   0.000  24.000       0        
GRID       70301       0   0.000   8.000  24.000       0        
GRID       70303       0   8.000   8.000  24.000       0        
GRID       70305       0  16.000   8.000  24.000       0        
GRID       70501       0   0.000  16.000  24.000       0        
GRID       70503       0   8.000  16.000  24.000       0        
GRID       70505       0  16.000  16.000  24.000       0        
$
GRID       90101       0   0.000   0.000  32.000       0        
$
GRID       90103       0   8.000   0.000  32.000       0        
GRID       90105       0  16.000   0.000  32.000       0        
GRID       90301       0   0.000   8.000  32.000       0        
GRID       90303       0   8.000   8.000  32.000       0        
GRID       90305       0  16.000   8.000  32.000       0        
GRID       90501       0   0.000  16.000  32.000       0        
GRID       90503       0   8.000  16.000  32.000       0        
GRID       90505       0  16.000  16.000  32.000       0        
$
GRID      110101       0   0.000   0.000  40.000       0        
$
GRID      110103       0   8.000   0.000  40.000       0        
GRID      110105       0  16.000   0.000  40.000       0        
GRID      110301       0   0.000   8.000  40.000       0        
GRID      110303       0   8.000   8.000  40.000       0        
GRID      110305       0  16.000   8.000  40.000       0        
GRID      110501       0   0.000  16.000  40.000       0        
GRID      110503       0   8.000  16.000  40.000       0        
GRID      110505       0  16.000  16.000  40.000       0        
$
GRID      130101       0   0.000   0.000  48.000       0        
$
GRID      130103       0   8.000   0.000  48.000       0        
GRID      130105       0  16.000   0.000  48.000       0        
GRID      130301       0   0.000   8.000  48.000       0        
GRID      130303       0   8.000   8.000  48.000       0        
GRID      130305       0  16.000   8.000  48.000       0        
GRID      130501       0   0.000  16.000  48.000       0        
GRID      130503       0   8.000  16.000  48.000       0        
GRID      130505       0  16.000  16.000  48.000       0        
$
GRID      150101       0   0.000   0.000  56.000       0        
$
GRID      150103       0   8.000   0.000  56.000       0        
GRID      150105       0  16.000   0.000  56.000       0        
GRID      150301       0   0.000   8.000  56.000       0        
GRID      150303       0   8.000   8.000  56.000       0        
GRID      150305       0  16.000   8.000  56.000       0        
GRID      150501       0   0.000  16.000  56.000       0        
GRID      150503       0   8.000  16.000  56.000       0        
GRID      150505       0  16.000  16.000  56.000       0        
$
GRID      170101       0   0.000   0.000  64.000       0        
$
GRID      170103       0   8.000   0.000  64.000       0        
GRID      170105       0  16.000   0.000  64.000       0        
GRID      170301       0   0.000   8.000  64.000       0        
GRID      170303       0   8.000   8.000  64.000       0        
GRID      170305       0  16.000   8.000  64.000       0        
GRID      170501       0   0.000  16.000  64.000       0        
GRID      170503       0   8.000  16.000  64.000       0        
GRID      170505       0  16.000  16.000  64.000       0        
$
GRID      190101       0   0.000   0.000  72.000       0        
$
GRID      190103       0   8.000   0.000  72.000       0        
GRID      190105       0  16.000   0.000  72.000       0        
GRID      190301       0   0.000   8.000  72.000       0        
GRID      190303       0   8.000   8.000  72.000       0        
GRID      190305       0  16.000   8.000  72.000       0        
GRID      190501       0   0.000  16.000  72.000       0        
GRID      190503       0   8.000  16.000  72.000       0        
GRID      190505       0  16.000  16.000  72.000       0        
$
GRID      210101       0   0.000   0.000  80.000       0        
$
GRID      210103       0   8.000   0.000  80.000       0        
GRID      210105       0  16.000   0.000  80.000       0        
GRID      210301       0   0.000   8.000  80.000       0        
GRID      210303       0   8.000   8.000  80.000       0        
GRID      210305       0  16.000   8.000  80.000       0        
GRID      210501       0   0.000  16.000  80.000       0        
GRID      210503       0   8.000  16.000  80.000       0        
GRID      210505       0  16.000  16.000  80.000       0        
$
GRID      230101       0   0.000   0.000  88.000       0        
$
GRID      230103       0   8.000   0.000  88.000       0        
GRID      230105       0  16.000   0.000  88.000       0        
GRID      230301       0   0.000   8.000  88.000       0        
GRID      230303       0   8.000   8.000  88.000       0        
GRID      230305       0  16.000   8.000  88.000       0        
GRID      230501       0   0.000  16.000  88.000       0        
GRID      230503       0   8.000  16.000  88.000       0        
GRID      230505       0  16.000  16.000  88.000       0        
$
GRID      250101       0   0.000   0.000  96.000       0        
$
GRID      250103       0   8.000   0.000  96.000       0        
GRID      250105       0  16.000   0.000  96.000       0        
GRID      250301       0   0.000   8.000  96.000       0        
GRID      250303       0   8.000   8.000  96.000       0        
GRID      250305       0  16.000   8.000  96.000       0        
GRID      250501       0   0.000  16.000  96.000       0        
GRID      250503       0   8.000  16.000  96.000       0        
GRID      250505       0  16.000  16.000  96.000       0        
$
GRID      270101       0   0.000   0.000 104.000       0        
$
GRID      270103       0   8.000   0.000 104.000       0        
GRID      270105       0  16.000   0.000 104.000       0        
GRID      270301       0   0.000   8.000 104.000       0        
GRID      270303       0   8.000   8.000 104.000       0        
GRID      270305       0  16.000   8.000 104.000       0        
GRID      270501       0   0.000  16.000 104.000       0        
GRID      270503       0   8.000  16.000 104.000       0        
GRID      270505       0  16.000  16.000 104.000       0        
$
GRID      290101       0   0.000   0.000 112.000       0        
$
GRID      290103       0   8.000   0.000 112.000       0        
GRID      290105       0  16.000   0.000 112.000       0        
GRID      290301       0   0.000   8.000 112.000       0        
GRID      290303       0   8.000   8.000 112.000       0        
GRID      290305       0  16.000   8.000 112.000       0        
GRID      290501       0   0.000  16.000 112.000       0        
GRID      290503       0   8.000  16.000 112.000       0        
GRID      290505       0  16.000  16.000 112.000       0        
$
GRID      310101       0   0.000   0.000 120.000       0        
$
GRID      310103       0   8.000   0.000 120.000       0        
GRID      310105       0  16.000   0.000 120.000       0        
GRID      310301       0   0.000   8.000 120.000       0        
GRID      310303       0   8.000   8.000 120.000       0        
GRID      310305       0  16.000   8.000 120.000       0        
GRID      310501       0   0.000  16.000 120.000       0        
GRID      310503       0   8.000  16.000 120.000       0        
GRID      310505       0  16.000  16.000 120.000       0        
$
GRID      330101       0   0.000   0.000 128.000       0        
$
GRID      330103       0   8.000   0.000 128.000       0        
GRID      330105       0  16.000   0.000 128.000       0        
GRID      330301       0   0.000   8.000 128.000       0        
GRID      330303       0   8.000   8.000 128.000       0        
GRID      330305       0  16.000   8.000 128.000       0        
GRID      330501       0   0.000  16.000 128.000       0        
GRID      330503       0   8.000  16.000 128.000       0        
GRID      330505       0  16.000  16.000 128.000       0        
$
GRID      350101       0   0.000   0.000 136.000       0        
$
GRID      350103       0   8.000   0.000 136.000       0        
GRID      350105       0  16.000   0.000 136.000       0        
GRID      350301       0   0.000   8.000 136.000       0        
GRID      350303       0   8.000   8.000 136.000       0        
GRID      350305       0  16.000   8.000 136.000       0        
GRID      350501       0   0.000  16.000 136.000       0        
GRID      350503       0   8.000  16.000 136.000       0        
GRID      350505       0  16.000  16.000 136.000       0        
$
GRID      370101       0   0.000   0.000 144.000       0        
$
GRID      370103       0   8.000   0.000 144.000       0        
GRID      370105       0  16.000   0.000 144.000       0        
GRID      370301       0   0.000   8.000 144.000       0        
GRID      370303       0   8.000   8.000 144.000       0        
GRID      370305       0  16.000   8.000 144.000       0        
GRID      370501       0   0.000  16.000 144.000       0        
GRID      370503       0   8.000  16.000 144.000       0        
GRID      370505       0  16.000  16.000 144.000       0        
$
GRID      390101       0   0.000   0.000 152.000       0        
$
GRID      390103       0   8.000   0.000 152.000       0        
GRID      390105       0  16.000   0.000 152.000       0        
GRID      390301       0   0.000   8.000 152.000       0        
GRID      390303       0   8.000   8.000 152.000       0        
GRID      390305       0  16.000   8.000 152.000       0        
GRID      390501       0   0.000  16.000 152.000       0        
GRID      390503       0   8.000  16.000 152.000       0        
GRID      390505       0  16.000  16.000 152.000       0        
$
GRID      410101       0   0.000   0.000 160.000       0        
$
GRID      410103       0   8.000   0.000 160.000       0        
GRID      410105       0  16.000   0.000 160.000       0        
GRID      410301       0   0.000   8.000 160.000       0        
GRID      410303       0   8.000   8.000 160.000       0        
GRID      410305       0  16.000   8.000 160.000       0        
GRID      410501       0   0.000  16.000 160.000       0        
GRID      410503       0   8.000  16.000 160.000       0        
GRID      410505       0  16.000  16.000 160.000       0        
$
$ 1.0 degree temperature gradient along X axis
$
TEMP          22   10101 -0.5000   10103  0.0000   10105  0.5000
TEMP          22   10301 -0.5000   10303  0.0000   10305  0.5000
TEMP          22   10501 -0.5000   10503  0.0000   10505  0.5000
TEMP          22   30101 -0.5000   30103  0.0000   30105  0.5000
TEMP          22   30301 -0.5000   30303  0.0000   30305  0.5000
TEMP          22   30501 -0.5000   30503  0.0000   30505  0.5000
TEMP          22   50101 -0.5000   50103  0.0000   50105  0.5000
TEMP          22   50301 -0.5000   50303  0.0000   50305  0.5000
TEMP          22   50501 -0.5000   50503  0.0000   50505  0.5000
TEMP          22   70101 -0.5000   70103  0.0000   70105  0.5000
TEMP          22   70301 -0.5000   70303  0.0000   70305  0.5000
TEMP          22   70501 -0.5000   70503  0.0000   70505  0.5000
TEMP          22   90101 -0.5000   90103  0.0000   90105  0.5000
TEMP          22   90301 -0.5000   90303  0.0000   90305  0.5000
TEMP          22   90501 -0.5000   90503  0.0000   90505  0.5000
TEMP          22  110101 -0.5000  110103  0.0000  110105  0.5000
TEMP          22  110301 -0.5000  110303  0.0000  110305  0.5000
TEMP          22  110501 -0.5000  110503  0.0000  110505  0.5000
TEMP          22  130101 -0.5000  130103  0.0000  130105  0.5000
TEMP          22  130301 -0.5000  130303  0.0000  130305  0.5000
$ ... 43 like lines cut
$
ENDDATA
